@<TRIPOS>MOLECULE
UNK
   68    71     1     0     0
SMALL
bcc


@<TRIPOS>ATOM
      1 O3          11.4760    21.0730    22.2900 os      1201 UNK      -0.317400
      2 C26         11.4580    21.3200    20.8750 c3      1201 UNK       0.111700
      3 C21         11.1150    19.8670    22.8500 ca      1201 UNK       0.159600
      4 C20         10.9410    18.6970    22.0870 ca      1201 UNK      -0.226000
      5 C19         10.5820    17.4710    22.6990 cp      1201 UNK       0.008000
      6 C24         10.4080    17.4650    24.1030 ca      1201 UNK      -0.226000
      7 C23         10.5730    18.6270    24.8680 ca      1201 UNK       0.159600
      8 C22         10.9250    19.8310    24.2360 ca      1201 UNK      -0.173000
      9 C9          10.4070    16.2280    21.8830 cp      1201 UNK      -0.040000
     10 C8          11.1140    15.0440    22.2040 ca      1201 UNK      -0.065000
     11 C6          10.9480    13.8690    21.4500 ca      1201 UNK      -0.148300
     12 C7          11.6980    12.6030    21.8350 c3      1201 UNK       0.134300
     13 C5          10.0530    13.8590    20.3650 ca      1201 UNK       0.151100
     14 N           12.5900    12.1380    20.7580 n       1201 UNK      -0.467800
     15 C2          13.9120    12.5450    20.5810 c       1201 UNK       0.654100
     16 C3          11.8980    11.3370    19.7220 c3      1201 UNK       0.052000
     17 O4          14.5420    12.2000    19.5990 o       1201 UNK      -0.584100
     18 C4          10.9420    12.1730    18.8400 c3      1201 UNK       0.106400
     19 O            9.8570    12.7110    19.6330 os      1201 UNK      -0.377900
     20 C11          9.3190    15.0120    20.0460 ca      1201 UNK      -0.169600
     21 C10          9.5110    16.1930    20.7900 ca      1201 UNK      -0.051000
     22 C1          14.5700    13.3830    21.6890 c3      1201 UNK      -0.143400
     23 C           16.1140    13.3990    21.6140 c3      1201 UNK      -0.090100
     24 C12          8.3160    14.9770    18.9430 c       1201 UNK       0.693700
     25 N1           7.1500    14.3110    19.2520 n       1201 UNK      -0.563900
     26 HN1          7.1450    13.8570    20.1520 hn      1201 UNK       0.349500
     27 O1           8.4970    15.4590    17.8440 o       1201 UNK      -0.624100
     28 C13          6.1460    13.9940    18.2310 c3      1201 UNK       0.110700
     29 C18          4.7340    13.8300    18.8420 c3      1201 UNK       0.070800
     30 N2           3.6610    13.4070    17.8230 n4      1201 UNK      -0.755000
     31 C16          4.0960    12.1290    17.1040 c3      1201 UNK       0.104800
     32 H1           2.7410    13.2730    18.2830 hn      1201 UNK       0.454800
     33 H22          3.5290    14.1640    17.1250 hn      1201 UNK       0.454800
     34 C15          5.4900    12.2600    16.4530 c3      1201 UNK      -0.103400
     35 C14          6.5570    12.7060    17.4800 c3      1201 UNK      -0.112400
     36 O2          10.3780    18.5230    26.2280 os      1201 UNK      -0.317400
     37 C25         10.8790    17.4370    27.0260 c3      1201 UNK       0.111700
     38 HC          11.0840    18.7350    21.0170 ha      1201 UNK       0.141500
     39 HC1         10.1420    16.5420    24.5970 ha      1201 UNK       0.141500
     40 HC2         11.0490    20.7300    24.8210 ha      1201 UNK       0.175000
     41 HC3         11.7930    15.0430    23.0440 ha      1201 UNK       0.153000
     42 HC4         12.2960    12.8050    22.7240 h1      1201 UNK       0.071700
     43 HC5         10.9770    11.8180    22.0630 h1      1201 UNK       0.071700
     44 HC6         11.3190    10.5570    20.2170 h1      1201 UNK       0.082700
     45 HC7         12.6460    10.8670    19.0830 h1      1201 UNK       0.082700
     46 HC8         11.4980    12.9950    18.3890 h1      1201 UNK       0.068200
     47 HC9         10.5330    11.5400    18.0520 h1      1201 UNK       0.068200
     48 HC10         8.9650    17.0850    20.5210 ha      1201 UNK       0.163000
     49 HC11        14.2100    14.4080    21.6060 hc      1201 UNK       0.065200
     50 HC12        14.2700    12.9830    22.6570 hc      1201 UNK       0.065200
     51 HC13         6.1160    14.8140    17.5140 h1      1201 UNK       0.070700
     52 HC14         4.7840    13.0710    19.6230 hx      1201 UNK       0.122700
     53 HC15         4.4350    14.7770    19.2920 hx      1201 UNK       0.122700
     54 HC16         3.3670    11.9010    16.3260 hx      1201 UNK       0.106200
     55 HC17         4.1160    11.3090    17.8210 hx      1201 UNK       0.106200
     56 HC18         5.4390    12.9980    15.6530 hc      1201 UNK       0.091200
     57 HC19         5.7800    11.2970    16.0320 hc      1201 UNK       0.091200
     58 HC20         6.6990    11.9070    18.2070 hc      1201 UNK       0.084200
     59 HC21         7.4980    12.8840    16.9590 hc      1201 UNK       0.084200
     60 HC22        16.5160    13.9090    22.4890 hc      1201 UNK       0.051367
     61 HC23        16.4280    13.9240    20.7120 hc      1201 UNK       0.051367
     62 HC24        16.4870    12.3750    21.5870 hc      1201 UNK       0.051367
     63 HC25        11.6800    22.3700    20.6860 h1      1201 UNK       0.047867
     64 HC26        12.2080    20.6970    20.3880 h1      1201 UNK       0.047867
     65 HC27        10.4720    21.0800    20.4770 h1      1201 UNK       0.047867
     66 HC28        10.9360    17.7480    28.0690 h1      1201 UNK       0.047867
     67 HC29        10.2080    16.5820    26.9380 h1      1201 UNK       0.047867
     68 HC30        11.8720    17.1570    26.6750 h1      1201 UNK       0.047867
@<TRIPOS>BOND
     1     1     2 1   
     2     1     3 1   
     3     2    63 1   
     4     2    64 1   
     5     2    65 1   
     6     3     4 ar  
     7     3     8 ar  
     8     4     5 ar  
     9     4    38 1   
    10     5     6 ar  
    11     5     9 1   
    12     6     7 ar  
    13     6    39 1   
    14     7     8 ar  
    15     7    36 1   
    16     8    40 1   
    17     9    10 ar  
    18     9    21 ar  
    19    10    11 ar  
    20    10    41 1   
    21    11    12 1   
    22    11    13 ar  
    23    12    14 1   
    24    12    42 1   
    25    12    43 1   
    26    13    19 1   
    27    13    20 ar  
    28    14    15 1   
    29    14    16 1   
    30    15    17 2   
    31    15    22 1   
    32    16    18 1   
    33    16    44 1   
    34    16    45 1   
    35    18    19 1   
    36    18    46 1   
    37    18    47 1   
    38    20    21 ar  
    39    20    24 1   
    40    21    48 1   
    41    22    23 1   
    42    22    49 1   
    43    22    50 1   
    44    23    60 1   
    45    23    61 1   
    46    23    62 1   
    47    24    25 1   
    48    24    27 2   
    49    25    26 1   
    50    25    28 1   
    51    28    29 1   
    52    28    35 1   
    53    28    51 1   
    54    29    30 1   
    55    29    52 1   
    56    29    53 1   
    57    30    31 1   
    58    30    32 1   
    59    30    33 1   
    60    31    34 1   
    61    31    54 1   
    62    31    55 1   
    63    34    35 1   
    64    34    56 1   
    65    34    57 1   
    66    35    58 1   
    67    35    59 1   
    68    36    37 1   
    69    37    66 1   
    70    37    67 1   
    71    37    68 1   
@<TRIPOS>SUBSTRUCTURE
     1 UNK         1 TEMP              0 ****  ****    0 ROOT
