@<TRIPOS>MOLECULE
6F9
   68    71     1     0     0
SMALL
bcc


@<TRIPOS>ATOM
      1 O3          12.3260    12.1130    18.6240 os      1201 6F9      -0.322400
      2 C4          10.9350    18.0140    26.0640 c3      1201 6F9       0.106400
      3 C5          11.2360    15.9110    24.9700 ca      1201 6F9       0.151100
      4 O4          11.3130    20.6090    23.4250 o       1201 6F9      -0.584100
      5 C6          10.9510    16.1870    23.6390 ca      1201 6F9      -0.148300
      6 N1          12.0870    13.3940    27.2190 n       1201 6F9      -0.563900
      7 C7           9.9530    17.2580    23.2730 c3      1201 6F9       0.134300
      8 C8          11.5990    15.4560    22.6530 ca      1201 6F9      -0.066000
      9 N2          11.7080    11.2250    30.2430 n4      1201 6F9      -0.755000
     10 C9          12.5220    14.4570    22.9710 cp      1201 6F9      -0.039000
     11 C10         12.7960    14.2000    24.3210 ca      1201 6F9      -0.049000
     12 C11         12.1540    14.9250    25.3370 ca      1201 6F9      -0.168600
     13 C12         12.4370    14.6070    26.7740 c       1201 6F9       0.692700
     14 C13         12.0290    13.0690    28.6470 c3      1201 6F9       0.109700
     15 C14         10.9380    13.8640    29.3530 c3      1201 6F9      -0.112400
     16 C15         10.8140    13.4530    30.8190 c3      1201 6F9      -0.103400
     17 C2          10.9840    19.5130    22.9760 c       1201 6F9       0.654100
     18 C1          11.3150    19.1450    21.5420 c3      1201 6F9      -0.143400
     19 C           11.7530    20.2940    20.6890 c3      1201 6F9      -0.090100
     20 N           10.3650    18.5910    23.7390 n       1201 6F9      -0.466800
     21 C19         13.1430    13.6490    21.8900 cp      1201 6F9       0.006000
     22 C24         14.4930    13.2810    21.9330 ca      1201 6F9      -0.205500
     23 C23         15.0550    12.5640    20.8830 ca      1201 6F9       0.163600
     24 O2          16.3770    12.2440    21.0310 os      1201 6F9      -0.322400
     25 C25         17.0000    11.3660    20.0960 c3      1201 6F9       0.111200
     26 C22         14.2900    12.1930    19.7860 ca      1201 6F9      -0.222000
     27 C21         12.9580    12.5530    19.7550 ca      1201 6F9       0.163600
     28 C26         10.9180    12.2990    18.4970 c3      1201 6F9       0.111200
     29 C20         12.3800    13.2670    20.7900 ca      1201 6F9      -0.205500
     30 O           10.5900    16.6170    25.9630 os      1201 6F9      -0.377900
     31 C3          10.0700    18.8560    25.1540 c3      1201 6F9       0.052000
     32 O1          12.8770    15.4680    27.5260 o       1201 6F9      -0.621100
     33 C18         11.7080    11.5950    28.8270 c3      1201 6F9       0.070800
     34 C16         10.6530    11.9500    30.9490 c3      1201 6F9       0.104800
     35 H42         10.7930    18.3420    27.0940 h1      1201 6F9       0.068200
     36 H43         11.9810    18.1460    25.7870 h1      1201 6F9       0.068200
     37 HN1         11.8550    12.6770    26.5470 hn      1201 6F9       0.348500
     38 H72          8.9930    17.0110    23.7250 h1      1201 6F9       0.071200
     39 H73          9.8390    17.2810    22.1890 h1      1201 6F9       0.071200
     40 H8          11.3840    15.6650    21.6150 ha      1201 6F9       0.152000
     41 H22         12.6030    11.4570    30.6490 hn      1201 6F9       0.454800
     42 H23         11.5480    10.2320    30.3300 hn      1201 6F9       0.454800
     43 H10         13.5110    13.4340    24.5830 ha      1201 6F9       0.165000
     44 H13         12.9920    13.2880    29.1080 h1      1201 6F9       0.069700
     45 H142         9.9870    13.6840    28.8520 hc      1201 6F9       0.084200
     46 H143        11.1760    14.9260    29.2980 hc      1201 6F9       0.084200
     47 H152        11.7120    13.7630    31.3530 hc      1201 6F9       0.090700
     48 H153         9.9470    13.9460    31.2580 hc      1201 6F9       0.090700
     49 H12         12.1180    18.4080    21.5570 hc      1201 6F9       0.064700
     50 H14         10.4340    18.6910    21.0880 hc      1201 6F9       0.064700
     51 H24         15.0990    13.5550    22.7840 ha      1201 6F9       0.147000
     52 H221        14.7280    11.6340    18.9730 ha      1201 6F9       0.164000
     53 H20         11.3330    13.5290    20.7440 ha      1201 6F9       0.147000
     54 H32          9.0220    18.6250    25.3470 h1      1201 6F9       0.082700
     55 H33         10.2490    19.9100    25.3650 h1      1201 6F9       0.082700
     56 H182        10.7240    11.3910    28.4060 hx      1201 6F9       0.123200
     57 H183        12.4530    10.9990    28.3010 hx      1201 6F9       0.123200
     58 H162        10.6880    11.6820    32.0050 hx      1201 6F9       0.106200
     59 H163         9.6860    11.6590    30.5400 hx      1201 6F9       0.106200
     60 H251        18.0300    11.1800    20.4020 h1      1201 6F9       0.049867
     61 H252        16.4550    10.4230    20.0650 h1      1201 6F9       0.049867
     62 H253        16.9920    11.8230    19.1070 h1      1201 6F9       0.049867
     63 H1          11.8670    19.9590    19.6580 hc      1201 6F9       0.051700
     64 H2          11.0050    21.0850    20.7330 hc      1201 6F9       0.051700
     65 H3          12.7070    20.6750    21.0540 hc      1201 6F9       0.051700
     66 H261        10.5760    11.8580    17.5610 h1      1201 6F9       0.049867
     67 H262        10.4110    11.8160    19.3330 h1      1201 6F9       0.049867
     68 H263        10.6910    13.3650    18.5010 h1      1201 6F9       0.049867
@<TRIPOS>BOND
     1     1    27 1   
     2     1    28 1   
     3     2    30 1   
     4     2    31 1   
     5     2    35 1   
     6     2    36 1   
     7     3     5 ar  
     8     3    12 ar  
     9     3    30 1   
    10     4    17 2   
    11     5     7 1   
    12     5     8 ar  
    13     6    13 1   
    14     6    14 1   
    15     6    37 1   
    16     7    20 1   
    17     7    38 1   
    18     7    39 1   
    19     8    10 ar  
    20     8    40 1   
    21     9    33 1   
    22     9    34 1   
    23     9    41 1   
    24     9    42 1   
    25    10    11 ar  
    26    10    21 1   
    27    11    12 ar  
    28    11    43 1   
    29    12    13 1   
    30    13    32 2   
    31    14    15 1   
    32    14    33 1   
    33    14    44 1   
    34    15    16 1   
    35    15    45 1   
    36    15    46 1   
    37    16    34 1   
    38    16    47 1   
    39    16    48 1   
    40    17    18 1   
    41    17    20 1   
    42    18    19 1   
    43    18    49 1   
    44    18    50 1   
    45    19    63 1   
    46    19    64 1   
    47    19    65 1   
    48    20    31 1   
    49    21    22 ar  
    50    21    29 ar  
    51    22    23 ar  
    52    22    51 1   
    53    23    24 1   
    54    23    26 ar  
    55    24    25 1   
    56    25    60 1   
    57    25    61 1   
    58    25    62 1   
    59    26    27 ar  
    60    26    52 1   
    61    27    29 ar  
    62    28    66 1   
    63    28    67 1   
    64    28    68 1   
    65    29    53 1   
    66    31    54 1   
    67    31    55 1   
    68    33    56 1   
    69    33    57 1   
    70    34    58 1   
    71    34    59 1   
@<TRIPOS>SUBSTRUCTURE
     1 6F9         1 TEMP              0 ****  ****    0 ROOT
